/*---------------------------------------------------------------------------*\
| =========                 |                                                 |
| \\      /  F ield         | OpenFOAM: The Open Source CFD Toolbox           |
|  \\    /   O peration     | Version:  1.4                                   |
|   \\  /    A nd           | Web:      http://www.openfoam.org               |
|    \\/     M anipulation  |                                                 |
\*---------------------------------------------------------------------------*/

FoamFile
{
    version         2.0;
    format          ascii;

    root            "";
    case            "";
    instance        "";
    local           "";

    class           volScalarField;
    object          T;
}

// * * * * * * * * * * * * * * * * * * * * * * * * * * * * * * * * * * * * * //


dimensions      [0 0 0 1 0 0 0];

internalField   uniform 288.15;

boundaryField
{
    inlet           
    {
        type            fixedValue;
        value           uniform 288.15;
    }

    outlet          
    {
        type            zeroGradient;
    }

    bottom          
    {
        type            symmetryPlane;
    }

    top             
    {
        type            fixedValue;
        value           uniform 362.648;
    }

    defaultFaces    
    {
        type            empty;
    }
}


// ************************************************************************* //
